
#######################################################################
#
#                 Cambridge Crystallographic Data Centre
#                                CCDC 
#
#######################################################################
#
# If this CIF has been generated from an entry in the Cambridge 
# Structural Database, then it will include bibliographic, chemical, 
# crystal, experimental, refinement or atomic coordinate data resulting 
# from the CCDC's data processing and validation procedures.
#
#######################################################################

data_NICOAM09
_symmetry_cell_setting           monoclinic
_symmetry_space_group_name_H-M   'P 21'
_symmetry_Int_Tables_number      4
_space_group_name_Hall           'P 2yb'
loop_
_symmetry_equiv_pos_site_id
_symmetry_equiv_pos_as_xyz
1 x,y,z
2 -x,1/2+y,-z
_cell_length_a                   10.70050(10)
_cell_length_b                   35.1874(2)
_cell_length_c                   15.82560(10)
_cell_angle_alpha                90
_cell_angle_beta                 102.6800(10)
_cell_angle_gamma                90
_cell_volume                     5813.37
loop_
_atom_site_label
_atom_site_type_symbol
_atom_site_fract_x
_atom_site_fract_y
_atom_site_fract_z
_atom_site_U_iso_or_equiv
_atom_site_thermal_displace_type
C2 C -0.3270(4) 0.54311(12) 0.7038(3) 0.0185 Uani
C1 C -0.4400(4) 0.55862(13) 0.7183(3) 0.0203 Uani
N2 N -0.4462(4) 0.59135(11) 0.7603(2) 0.0218 Uani
C6 C -0.3363(4) 0.60966(13) 0.7909(3) 0.0212 Uani
C5 C -0.2190(4) 0.59706(13) 0.7790(3) 0.0215 Uani
C3 C -0.2130(4) 0.56312(12) 0.7336(3) 0.0196 Uani
C4 C -0.3235(4) 0.50603(12) 0.6579(3) 0.0186 Uani
O1 O -0.2185(3) 0.49435(9) 0.6441(2) 0.0221 Uani
N1 N -0.4310(4) 0.48653(11) 0.6330(3) 0.0219 Uani
H1 H -0.430553 0.465216 0.606465 0.0260 Uiso
H2 H -0.501369 0.495171 0.643296 0.0260 Uiso
H3 H -0.515880 0.545451 0.697575 0.0240 Uiso
H6 H -0.338864 0.632053 0.821668 0.0250 Uiso
H5 H -0.144983 0.610914 0.800978 0.0260 Uiso
H4 H -0.135649 0.554231 0.723531 0.0230 Uiso
C8 C 0.6833(4) 0.53835(13) 0.9479(3) 0.0193 Uani
C7 C 0.5724(4) 0.55225(13) 0.9697(3) 0.0229 Uani
N4 N 0.5673(4) 0.58403(12) 1.0147(2) 0.0241 Uani
C12 C 0.6772(5) 0.60332(14) 1.0408(3) 0.0238 Uani
C11 C 0.7920(4) 0.59193(14) 1.0231(3) 0.0241 Uani
C9 C 0.7959(4) 0.55917(13) 0.9755(3) 0.0204 Uani
C10 C 0.6867(4) 0.50270(13) 0.8958(3) 0.0199 Uani
O2 O 0.7897(3) 0.49153(9) 0.8812(2) 0.0241 Uani
N3 N 0.5768(4) 0.48382(11) 0.8683(3) 0.0244 Uani
H7 H 0.575963 0.463125 0.839211 0.0290 Uiso
H8 H 0.506958 0.492365 0.879568 0.0290 Uiso
H9 H 0.497181 0.538461 0.951582 0.0280 Uiso
H12 H 0.675856 0.625508 1.072529 0.0280 Uiso
H11 H 0.866017 0.606114 1.042883 0.0290 Uiso
H10 H 0.872039 0.551162 0.962094 0.0240 Uiso
C14 C 1.1833(4) 0.29234(12) 0.7623(3) 0.0184 Uani
C15 C 1.0840(5) 0.28444(13) 0.8029(3) 0.0251 Uani
N6 N 1.0987(4) 0.28092(12) 0.8887(2) 0.0257 Uani
C16 C 1.2179(4) 0.28467(13) 0.9366(3) 0.0258 Uani
C18 C 1.3237(4) 0.29213(13) 0.9022(3) 0.0251 Uani
C17 C 1.3060(4) 0.29627(13) 0.8141(3) 0.0217 Uani
C13 C 1.1685(4) 0.29592(12) 0.6660(3) 0.0211 Uani
O3 O 1.2633(3) 0.29885(10) 0.63501(19) 0.0254 Uani
N5 N 1.0496(3) 0.29540(11) 0.6162(2) 0.0225 Uani
H13 H 1.038369 0.297148 0.560797 0.0270 Uiso
H14 H 0.984600 0.293307 0.639582 0.0270 Uiso
H15 H 1.002218 0.281395 0.768416 0.0300 Uiso
H16 H 1.230269 0.282125 0.996396 0.0310 Uiso
H18 H 1.404903 0.294291 0.937920 0.0300 Uiso
H17 H 1.375138 0.301626 0.789230 0.0260 Uiso
C21 C -0.3370(4) 0.36624(12) 0.4782(3) 0.0186 Uani
C20 C -0.4557(4) 0.34910(13) 0.4502(3) 0.0225 Uani
N8 N -0.4747(4) 0.31553(11) 0.4096(2) 0.0224 Uani
C22 C -0.3707(5) 0.29797(14) 0.3941(3) 0.0261 Uani
C23 C -0.2480(4) 0.31318(13) 0.4184(3) 0.0245 Uani
C24 C -0.2308(4) 0.34733(12) 0.4611(3) 0.0196 Uani
C19 C -0.3326(4) 0.40318(13) 0.5258(3) 0.0184 Uani
O4 O -0.4340(3) 0.41625(9) 0.5428(2) 0.0221 Uani
N7 N -0.2189(3) 0.42099(11) 0.5493(2) 0.0212 Uani
H19 H -0.213481 0.442157 0.577030 0.0250 Uiso
H20 H -0.151737 0.411212 0.536531 0.0250 Uiso
H21 H -0.527134 0.361830 0.460476 0.0270 Uiso
H22 H -0.381044 0.274613 0.365888 0.0310 Uiso
H23 H -0.178332 0.300331 0.405752 0.0290 Uiso
H24 H -0.149315 0.357736 0.478548 0.0240 Uiso
C27 C 0.7079(4) 0.36936(13) -0.0262(3) 0.0199 Uani
C26 C 0.5990(4) 0.34975(14) -0.0675(3) 0.0264 Uani
N9 N 0.5992(4) 0.31626(12) -0.1067(3) 0.0312 Uani
C28 C 0.7143(5) 0.30100(14) -0.1064(3) 0.0297 Uani
C30 C 0.8282(4) 0.31740(14) -0.0676(3) 0.0273 Uani
C29 C 0.8262(5) 0.35223(14) -0.0271(3) 0.0303 Uani
C25 C 0.6919(4) 0.40578(13) 0.0174(3) 0.0216 Uani
O5 O 0.5856(3) 0.41591(10) 0.0285(2) 0.0271 Uani
N10 N 0.7973(4) 0.42693(12) 0.0466(3) 0.0260 Uani
H25 H 0.791671 0.447875 0.073556 0.0310 Uiso
H26 H 0.870272 0.419498 0.038426 0.0310 Uiso
H27 H 0.519995 0.360821 -0.067853 0.0320 Uiso
H28 H 0.716708 0.277827 -0.134245 0.0360 Uiso
H30 H 0.905435 0.305443 -0.068373 0.0320 Uiso
H29 H 0.902354 0.364134 -0.000655 0.0360 Uiso
C35 C 0.6832(4) 0.36254(12) 0.7185(3) 0.0189 Uani
C36 C 0.7947(4) 0.34491(13) 0.7066(3) 0.0203 Uani
N12 N 0.7971(3) 0.31106(11) 0.6692(2) 0.0208 Uani
C33 C 0.6836(4) 0.29343(13) 0.6410(3) 0.0227 Uani
C31 C 0.5680(4) 0.30869(12) 0.6502(3) 0.0175 Uani
C32 C 0.5672(4) 0.34355(13) 0.6890(3) 0.0215 Uani
C34 C 0.6797(4) 0.40049(13) 0.7625(3) 0.0201 Uani
O6 O 0.5784(3) 0.41290(9) 0.7752(2) 0.0248 Uani
N11 N 0.7926(4) 0.41892(11) 0.7886(3) 0.0226 Uani
H31 H 0.795261 0.440293 0.815274 0.0270 Uiso
H32 H 0.861650 0.409261 0.778428 0.0270 Uiso
H36 H 0.872079 0.357533 0.725841 0.0240 Uiso
H35 H 0.682946 0.269904 0.614154 0.0270 Uiso
H33 H 0.491920 0.295487 0.630381 0.0210 Uiso
H34 H 0.490568 0.354369 0.695485 0.0260 Uiso
C38 C 1.6562(4) 0.54412(13) 0.4631(3) 0.0198 Uani
C37 C 1.5412(4) 0.56098(13) 0.4736(3) 0.0211 Uani
N14 N 1.5345(4) 0.59460(11) 0.5100(3) 0.0250 Uani
C42 C 1.6443(4) 0.61387(14) 0.5387(3) 0.0231 Uani
C41 C 1.7620(4) 0.59922(14) 0.5320(3) 0.0232 Uani
C39 C 1.7685(4) 0.56409(13) 0.4927(3) 0.0202 Uani
C40 C 1.6591(4) 0.50653(12) 0.4185(3) 0.0183 Uani
O7 O 1.7638(3) 0.49433(9) 0.4057(2) 0.0221 Uani
N13 N 1.5508(4) 0.48722(11) 0.3941(3) 0.0225 Uani
H37 H 1.550700 0.465626 0.368663 0.0270 Uiso
H38 H 1.480555 0.496289 0.403751 0.0270 Uiso
H39 H 1.465268 0.547678 0.453836 0.0250 Uiso
H42 H 1.641108 0.637661 0.563791 0.0280 Uiso
H41 H 1.836569 0.612843 0.553768 0.0280 Uiso
H40 H 1.846694 0.554292 0.486444 0.0240 Uiso
C43 C 1.1361(4) 0.29129(11) 0.3059(3) 0.0180 Uani
C45 C 1.0165(4) 0.28183(13) 0.2546(3) 0.0219 Uani
N15 N 0.9896(3) 0.28050(12) 0.1677(2) 0.0234 Uani
C46 C 1.0856(4) 0.28918(13) 0.1302(3) 0.0240 Uani
C47 C 1.2086(4) 0.29950(13) 0.1746(3) 0.0234 Uani
C44 C 1.2334(4) 0.30035(13) 0.2649(3) 0.0206 Uani
C48 C 1.1489(4) 0.29237(13) 0.4022(3) 0.0202 Uani
O8 O 1.0505(3) 0.28888(11) 0.4318(2) 0.0309 Uani
N16 N 1.2639(4) 0.29737(12) 0.4523(2) 0.0234 Uani
H43 H 1.273188 0.298320 0.507670 0.0280 Uiso
H44 H 1.329565 0.299662 0.429624 0.0280 Uiso
H46 H 0.950962 0.276057 0.282545 0.0260 Uiso
H47 H 1.069651 0.288328 0.069999 0.0290 Uiso
H48 H 1.271907 0.305596 0.144911 0.0280 Uiso
H45 H 1.314162 0.306918 0.296888 0.0250 Uiso
C49 C 0.6455(4) 0.54057(13) 0.2099(3) 0.0209 Uani
C50 C 0.5268(4) 0.55381(13) 0.2230(3) 0.0235 Uani
N18 N 0.5137(4) 0.58634(11) 0.2626(3) 0.0247 Uani
C54 C 0.6195(5) 0.60700(14) 0.2935(3) 0.0252 Uani
C51 C 0.7402(5) 0.59567(14) 0.2860(3) 0.0252 Uani
C52 C 0.7528(5) 0.56242(13) 0.2426(3) 0.0232 Uani
C53 C 0.6584(4) 0.50506(13) 0.1603(3) 0.0224 Uani
O9 O 0.7654(3) 0.49662(10) 0.1456(2) 0.0255 Uani
N17 N 0.5556(4) 0.48329(12) 0.1325(3) 0.0262 Uani
H49 H 0.561796 0.462899 0.103730 0.0320 Uiso
H50 H 0.483098 0.489633 0.143342 0.0320 Uiso
H51 H 0.454309 0.539035 0.202942 0.0280 Uiso
H54 H 0.611107 0.629876 0.321166 0.0300 Uiso
H52 H 0.811804 0.610240 0.309772 0.0310 Uiso
H53 H 0.832856 0.554713 0.235283 0.0280 Uiso
C57 C 1.6325(4) 0.37076(13) 0.2246(3) 0.0189 Uani
C56 C 1.5103(4) 0.35721(14) 0.1888(3) 0.0259 Uani
N20 N 1.4852(4) 0.32611(12) 0.1389(3) 0.0304 Uani
C59 C 1.5877(4) 0.30718(13) 0.1246(3) 0.0268 Uani
C58 C 1.7130(4) 0.31856(14) 0.1572(3) 0.0263 Uani
C60 C 1.7364(4) 0.35051(14) 0.2077(3) 0.0244 Uani
C55 C 1.6424(4) 0.40567(13) 0.2793(3) 0.0197 Uani
O10 O 1.5450(3) 0.41752(9) 0.3023(2) 0.0246 Uani
N19 N 1.7561(4) 0.42299(11) 0.3028(2) 0.0229 Uani
H55 H 1.763800 0.442986 0.334736 0.0270 Uiso
H56 H 1.821403 0.414124 0.285862 0.0270 Uiso
H57 H 1.441060 0.370680 0.200143 0.0320 Uiso
H59 H 1.573822 0.285267 0.090933 0.0320 Uiso
H58 H 1.780661 0.304620 0.144858 0.0310 Uiso
H60 H 1.819857 0.358534 0.230237 0.0290 Uiso
C61 C 0.1285(4) 0.63536(13) 0.2293(3) 0.0218 Uani
C63 C 0.2328(5) 0.65694(13) 0.2208(3) 0.0274 Uani
N22 N 0.2231(4) 0.69176(12) 0.1826(3) 0.0322 Uani
C66 C 0.1047(5) 0.70476(14) 0.1511(3) 0.0326 Uani
C64 C -0.0050(4) 0.68490(14) 0.1553(3) 0.0275 Uani
C62 C 0.0057(4) 0.65004(14) 0.1957(3) 0.0242 Uani
C65 C 0.1399(5) 0.59837(13) 0.2769(3) 0.0239 Uani
O11 O 0.0446(3) 0.58505(9) 0.2977(2) 0.0269 Uani
N21 N 0.2528(4) 0.58106(11) 0.2970(3) 0.0268 Uani
H61 H 0.260617 0.560000 0.325228 0.0320 Uiso
H62 H 0.318009 0.590907 0.281750 0.0320 Uiso
H64 H 0.314272 0.647123 0.242365 0.0320 Uiso
H66 H 0.095719 0.728554 0.124894 0.0390 Uiso
H65 H -0.085285 0.694948 0.131032 0.0330 Uiso
H63 H -0.066964 0.636501 0.200726 0.0290 Uiso
C68 C 1.1591(4) 0.63706(12) 0.4798(3) 0.0191 Uani
C69 C 1.0403(4) 0.65461(13) 0.4512(3) 0.0210 Uani
N23 N 1.0224(4) 0.68808(12) 0.4105(3) 0.0257 Uani
C71 C 1.1277(5) 0.70542(13) 0.3957(3) 0.0241 Uani
C70 C 1.2490(5) 0.69069(14) 0.4204(3) 0.0265 Uani
C67 C 1.2658(5) 0.65570(13) 0.4633(3) 0.0249 Uani
C72 C 1.1630(4) 0.60004(13) 0.5274(3) 0.0198 Uani
O12 O 1.0655(3) 0.58744(9) 0.5445(2) 0.0245 Uani
N24 N 1.2747(4) 0.58255(11) 0.5500(3) 0.0247 Uani
H67 H 1.280492 0.561430 0.577942 0.0300 Uiso
H68 H 1.341636 0.592282 0.536751 0.0300 Uiso
H70 H 0.968423 0.642063 0.461120 0.0250 Uiso
H72 H 1.117653 0.728683 0.367096 0.0290 Uiso
H71 H 1.318913 0.703752 0.408711 0.0320 Uiso
H69 H 1.346980 0.645081 0.480592 0.0300 Uiso
C74 C 0.1560(4) 0.45951(12) 0.4610(3) 0.0195 Uani
C78 C 0.0436(4) 0.44341(13) 0.4734(3) 0.0225 Uani
N25 N 0.0363(4) 0.40923(11) 0.5102(3) 0.0230 Uani
C75 C 0.1471(4) 0.39040(13) 0.5370(3) 0.0223 Uani
C77 C 0.2659(4) 0.40451(14) 0.5296(3) 0.0241 Uani
C76 C 0.2698(4) 0.43945(14) 0.4912(3) 0.0225 Uani
C73 C 0.1615(5) 0.49708(13) 0.4170(3) 0.0225 Uani
O13 O 0.2633(3) 0.50866(9) 0.4017(2) 0.0249 Uani
N26 N 0.0520(4) 0.51651(11) 0.3936(3) 0.0250 Uani
H73 H 0.050822 0.537826 0.366856 0.0300 Uiso
H74 H -0.017243 0.507688 0.405259 0.0300 Uiso
H78 H -0.031860 0.457078 0.455114 0.0270 Uiso
H75 H 0.144406 0.366554 0.561864 0.0270 Uiso
H77 H 0.340483 0.390705 0.550086 0.0290 Uiso
H76 H 0.347643 0.449649 0.485432 0.0270 Uiso
C83 C 2.1460(4) 0.46105(12) 0.2085(3) 0.0208 Uani
C80 C 2.0296(4) 0.44846(13) 0.2222(3) 0.0219 Uani
N27 N 2.0127(4) 0.41588(11) 0.2632(3) 0.0239 Uani
C82 C 2.1175(5) 0.39508(13) 0.2931(3) 0.0256 Uani
C84 C 2.2396(4) 0.40548(14) 0.2846(3) 0.0252 Uani
C79 C 2.2543(4) 0.43878(14) 0.2415(3) 0.0236 Uani
C81 C 2.1620(4) 0.49637(13) 0.1594(3) 0.0213 Uani
O14 O 2.2667(3) 0.50392(10) 0.1423(2) 0.0255 Uani
N28 N 2.0587(4) 0.51844(12) 0.1318(3) 0.0252 Uani
H84 H 2.067(5) 0.5391(17) 0.112(4) 0.0390 Uiso
H79 H 1.999413 0.513278 0.159529 0.0300 Uiso
H81 H 1.957914 0.463511 0.201628 0.0260 Uiso
H82 H 2.108350 0.372380 0.321256 0.0310 Uiso
H83 H 2.31001 0.390283 0.307409 0.0300 Uiso
H80 H 2.33481 0.446294 0.234544 0.0280 Uiso
C89 C 1.1713(4) 0.45997(12) 0.7032(3) 0.0191 Uani
C90 C 1.0583(4) 0.44445(13) 0.7188(3) 0.0216 Uani
N29 N 1.0527(4) 0.41105(11) 0.7581(3) 0.0231 Uani
C86 C 1.1632(5) 0.39179(13) 0.7839(3) 0.0234 Uani
C88 C 1.2805(5) 0.40476(14) 0.7712(3) 0.0247 Uani
C85 C 1.2831(4) 0.43906(14) 0.7307(3) 0.0236 Uani
C87 C 1.1779(5) 0.49740(13) 0.6587(3) 0.0213 Uani
O15 O 1.2794(3) 0.50917(9) 0.6445(2) 0.0243 Uani
N30 N 1.0665(4) 0.51678(11) 0.6340(3) 0.0245 Uani
H86 H 1.081980 0.539754 0.620210 0.0290 Uiso
H85 H 1.026429 0.517397 0.675792 0.0290 Uiso
H90 H 0.982776 0.458117 0.700855 0.0260 Uiso
H88 H 1.160977 0.368603 0.811777 0.0280 Uiso
H89 H 1.354822 0.390576 0.789590 0.0300 Uiso
H87 H 1.360322 0.448449 0.721533 0.0280 Uiso
C92 C 0.6282(4) 0.71040(12) 0.2969(3) 0.0202 Uani
C94 C 0.7235(4) 0.69835(13) 0.2559(3) 0.0238 Uani
N31 N 0.7052(4) 0.69263(12) 0.1705(2) 0.0269 Uani
C95 C 0.5878(4) 0.69968(14) 0.1230(3) 0.0281 Uani
C96 C 0.4888(5) 0.71275(14) 0.1564(3) 0.0289 Uani
C91 C 0.5082(4) 0.71810(13) 0.2461(3) 0.0246 Uani
C93 C 0.6441(4) 0.71340(13) 0.3930(3) 0.0236 Uani
O16 O 0.5504(3) 0.71934(10) 0.4245(2) 0.0280 Uani
N32 N 0.7623(4) 0.70847(12) 0.4429(2) 0.0262 Uani
H91 H 0.773929 0.709435 0.498339 0.0310 Uiso
H92 H 0.826098 0.704365 0.419203 0.0310 Uiso
H94 H 0.804848 0.693994 0.289906 0.0290 Uiso
H95 H 0.572852 0.695411 0.063666 0.0340 Uiso
H96 H 0.409709 0.718015 0.120256 0.0350 Uiso
H93 H 0.442174 0.726601 0.270877 0.0290 Uiso
C98 C -0.8156(5) 0.64109(13) 0.7251(3) 0.0216 Uani
C97 C -0.7060(5) 0.65846(13) 0.7102(3) 0.0254 Uani
N33 N -0.7059(4) 0.69168(12) 0.6677(3) 0.0266 Uani
C102 C -0.8194(5) 0.70831(13) 0.6396(3) 0.0259 Uani
C101 C -0.9342(5) 0.69368(14) 0.6514(3) 0.0297 Uani
C99 C -0.9314(5) 0.65920(13) 0.6942(3) 0.0253 Uani
C100 C -0.8153(4) 0.60352(13) 0.7713(3) 0.0224 Uani
O17 O -0.9173(3) 0.59147(10) 0.7858(2) 0.0282 Uani
N34 N -0.7064(4) 0.58517(11) 0.7950(3) 0.0256 Uani
H97 H -0.703925 0.563845 0.821890 0.0310 Uiso
H98 H -0.637571 0.594484 0.783755 0.0310 Uiso
H99 H -0.627817 0.646466 0.730851 0.0300 Uiso
H102 H -0.821497 0.731251 0.610082 0.0310 Uiso
H101 H -1.010917 0.706535 0.631216 0.0360 Uiso
H100 H -1.007146 0.648294 0.702225 0.0300 Uiso
C104 C -0.8197(4) 0.46331(12) 0.9461(3) 0.0204 Uani
C105 C -0.9314(4) 0.44999(13) 0.9676(3) 0.0216 Uani
N35 N -0.9371(4) 0.41765(12) 1.0111(3) 0.0263 Uani
C103 C -0.8293(5) 0.39677(14) 1.0337(3) 0.0266 Uani
C108 C -0.7132(5) 0.40777(14) 1.0153(3) 0.0255 Uani
C107 C -0.7089(4) 0.44180(14) 0.9715(3) 0.0253 Uani
C106 C -0.8136(4) 0.49956(13) 0.8982(3) 0.0222 Uani
O18 O -0.7101(3) 0.51060(9) 0.8835(2) 0.0235 Uani
N36 N -0.9234(4) 0.51881(11) 0.8701(3) 0.0243 Uani
H104 H -0.906602 0.542531 0.864682 0.0290 Uiso
H103 H -0.971977 0.516477 0.906687 0.0290 Uiso
H106 H -1.005811 0.464295 0.950815 0.0260 Uiso
H105 H -0.832616 0.373997 1.063001 0.0320 Uiso
H108 H -0.640392 0.392741 1.031885 0.0300 Uiso
H107 H -0.632287 0.450127 0.959258 0.0300 Uiso
C110 C 2.2103(4) 0.63619(13) -0.0129(3) 0.0226 Uani
C109 C 2.3280(5) 0.65082(15) -0.0190(3) 0.0294 Uani
N38 N 2.3446(4) 0.68547(13) -0.0501(3) 0.0368 Uani
C114 C 2.2388(4) 0.70643(15) -0.0771(3) 0.0301 Uani
C113 C 2.1188(4) 0.69480(15) -0.0721(3) 0.0335 Uani
C111 C 2.1029(4) 0.65867(14) -0.0405(3) 0.0296 Uani
C112 C 2.1947(4) 0.59733(13) 0.0251(3) 0.0210 Uani
O19 O 2.0880(3) 0.58720(10) 0.0346(2) 0.0286 Uani
N37 N 2.2984(4) 0.57549(11) 0.0461(3) 0.0271 Uani
H109 H 2.29294 0.553216 0.067362 0.0320 Uiso
H110 H 2.37086 0.583641 0.038417 0.0320 Uiso
H111 H 2.40009 0.635692 -0.000424 0.0350 Uiso
H114 H 2.24754 0.730244 -0.100662 0.0360 Uiso
H113 H 2.048727 0.710830 -0.089465 0.0400 Uiso
H112 H 2.021951 0.649794 -0.038008 0.0360 Uiso
C116 C 0.6760(4) 0.70751(12) 0.7516(3) 0.0211 Uani
C115 C 0.7940(5) 0.69909(13) 0.8028(3) 0.0253 Uani
N39 N 0.8188(4) 0.69580(12) 0.8899(2) 0.0276 Uani
C120 C 0.7211(4) 0.70242(14) 0.9274(3) 0.0289 Uani
C118 C 0.5994(5) 0.71236(14) 0.8823(3) 0.0293 Uani
C117 C 0.5761(4) 0.71482(13) 0.7936(3) 0.0228 Uani
C119 C 0.6620(4) 0.70818(12) 0.6565(3) 0.0205 Uani
O20 O 0.7613(3) 0.70773(10) 0.6259(2) 0.0279 Uani
N40 N 0.5452(4) 0.70926(12) 0.6058(2) 0.0245 Uani
H115 H 0.535771 0.709673 0.550390 0.0290 Uiso
H116 H 0.478998 0.709545 0.628316 0.0290 Uiso
H117 H 0.861659 0.695393 0.775453 0.0300 Uiso
H120 H 0.735304 0.700249 0.987318 0.0350 Uiso
H119 H 0.534627 0.717264 0.911570 0.0350 Uiso
H118 H 0.495095 0.721262 0.761766 0.0270 Uiso
loop_
_atom_site_aniso_label
_atom_site_aniso_U_11
_atom_site_aniso_U_22
_atom_site_aniso_U_33
_atom_site_aniso_U_23
_atom_site_aniso_U_13
_atom_site_aniso_U_12
O1 0.0152(15) 0.0219(16) 0.0301(16) -0.0022(13) 0.0067(12) 0.0007(12)
N1 0.0124(18) 0.0193(18) 0.035(2) -0.0043(15) 0.0075(15) 0.0027(14)
N2 0.0196(19) 0.0204(18) 0.0256(18) -0.0002(15) 0.0052(14) 0.0034(15)
C1 0.015(2) 0.018(2) 0.027(2) -0.0012(16) 0.0027(16) 0.0012(16)
C2 0.012(2) 0.022(2) 0.022(2) 0.0059(16) 0.0050(15) 0.0002(16)
C3 0.017(2) 0.018(2) 0.025(2) 0.0003(16) 0.0069(16) -0.0005(16)
C4 0.014(2) 0.018(2) 0.023(2) 0.0035(16) 0.0025(15) 0.0036(16)
C5 0.016(2) 0.021(2) 0.027(2) -0.0011(17) 0.0034(16) -0.0002(16)
C6 0.018(2) 0.021(2) 0.025(2) 0.0005(16) 0.0055(16) 0.0023(17)
O2 0.0204(16) 0.0224(16) 0.0300(16) -0.0004(13) 0.0066(13) 0.0017(12)
N3 0.0174(19) 0.0212(19) 0.035(2) -0.0031(16) 0.0063(16) 0.0006(15)
N4 0.0188(19) 0.028(2) 0.0252(18) -0.0024(15) 0.0039(14) 0.0016(16)
C7 0.020(2) 0.022(2) 0.026(2) 0.0008(17) 0.0036(17) -0.0005(18)
C8 0.014(2) 0.023(2) 0.020(2) 0.0017(16) 0.0016(16) 0.0026(16)
C9 0.014(2) 0.026(2) 0.022(2) -0.0011(17) 0.0054(15) -0.0018(17)
C10 0.017(2) 0.018(2) 0.024(2) 0.0040(16) 0.0032(16) 0.0007(17)
C11 0.017(2) 0.026(2) 0.029(2) -0.0050(18) 0.0042(17) -0.0055(17)
C12 0.026(2) 0.023(2) 0.022(2) -0.0024(16) 0.0042(17) 0.0007(18)
O3 0.0174(15) 0.0399(19) 0.0203(14) 0.0006(13) 0.0072(11) -0.0026(13)
N5 0.0138(17) 0.033(2) 0.0224(16) -0.0008(15) 0.0076(13) -0.0043(15)
N6 0.0194(18) 0.036(2) 0.0217(17) 0.0026(15) 0.0047(14) -0.0008(15)
C13 0.015(2) 0.019(2) 0.031(2) 0.0022(17) 0.0085(16) -0.0031(16)
C14 0.017(2) 0.0165(19) 0.0215(19) 0.0008(15) 0.0035(15) 0.0011(15)
C15 0.025(2) 0.025(2) 0.028(2) 0.0035(17) 0.0114(17) 0.0021(18)
C16 0.025(2) 0.033(2) 0.0212(19) 0.0031(17) 0.0090(16) 0.0027(18)
C17 0.0138(19) 0.029(2) 0.0228(19) 0.0008(16) 0.0050(15) -0.0014(16)
C18 0.0154(19) 0.033(2) 0.026(2) -0.0027(17) 0.0024(15) -0.0001(17)
O4 0.0128(15) 0.0208(15) 0.0339(16) -0.0016(13) 0.0076(12) 0.0015(12)
N7 0.0118(17) 0.0223(19) 0.0294(19) -0.0019(15) 0.0040(14) -0.0005(14)
N8 0.0161(18) 0.0257(19) 0.0248(18) -0.0003(15) 0.0033(14) -0.0007(15)
C19 0.0117(19) 0.021(2) 0.023(2) 0.0012(16) 0.0052(16) -0.0020(16)
C20 0.016(2) 0.025(2) 0.027(2) 0.0003(17) 0.0056(17) 0.0032(17)
C21 0.015(2) 0.018(2) 0.024(2) 0.0033(16) 0.0068(16) 0.0044(16)
C22 0.022(2) 0.024(2) 0.031(2) -0.0049(18) 0.0027(18) 0.0014(18)
C23 0.014(2) 0.025(2) 0.036(2) 0.0022(19) 0.0089(17) 0.0007(17)
C24 0.0099(19) 0.021(2) 0.029(2) 0.0016(17) 0.0067(16) 0.0020(16)
O5 0.0156(15) 0.0272(17) 0.0388(18) 0.0015(14) 0.0069(13) 0.0029(13)
N9 0.0178(17) 0.039(2) 0.036(2) -0.0067(17) 0.0040(15) -0.0014(16)
N10 0.0171(19) 0.025(2) 0.034(2) -0.0058(16) 0.0015(16) -0.0025(15)
C25 0.015(2) 0.028(2) 0.023(2) 0.0056(17) 0.0068(16) 0.0007(17)
C26 0.0120(18) 0.035(2) 0.032(2) 0.0001(19) 0.0043(16) -0.0006(17)
C27 0.0139(19) 0.023(2) 0.022(2) 0.0072(16) 0.0024(15) -0.0016(16)
C28 0.026(2) 0.030(2) 0.032(2) -0.0014(19) 0.0042(18) 0.0010(18)
C29 0.016(2) 0.027(2) 0.046(3) 0.002(2) 0.003(2) -0.0003(18)
C30 0.017(2) 0.030(2) 0.035(2) 0.0026(19) 0.0057(17) 0.0034(18)
O6 0.0147(15) 0.0233(16) 0.0369(17) -0.0028(13) 0.0067(13) 0.0011(12)
N11 0.0161(18) 0.0202(18) 0.0317(19) -0.0047(15) 0.0060(15) -0.0027(15)
N12 0.0093(16) 0.0251(19) 0.0280(18) 0.0006(15) 0.0042(13) -0.0015(14)
C31 0.0040(17) 0.021(2) 0.026(2) 0.0023(16) 0.0002(14) -0.0031(15)
C32 0.012(2) 0.026(2) 0.025(2) 0.0031(17) 0.0006(16) -0.0004(17)
C33 0.018(2) 0.022(2) 0.028(2) -0.0040(17) 0.0047(17) -0.0010(17)
C34 0.017(2) 0.022(2) 0.023(2) 0.0011(16) 0.0078(16) -0.0002(17)
C35 0.014(2) 0.022(2) 0.0206(19) -0.0005(16) 0.0037(15) -0.0027(16)
C36 0.0116(19) 0.023(2) 0.026(2) 0.0008(17) 0.0036(16) -0.0019(16)
O7 0.0148(15) 0.0224(16) 0.0305(16) -0.0023(13) 0.0079(12) 0.0015(12)
N13 0.0147(18) 0.0208(19) 0.034(2) -0.0057(15) 0.0098(15) -0.0005(14)
N14 0.0190(19) 0.024(2) 0.033(2) -0.0025(16) 0.0079(16) -0.0002(15)
C37 0.012(2) 0.023(2) 0.030(2) -0.0025(18) 0.0081(17) 0.0008(16)
C38 0.012(2) 0.023(2) 0.025(2) 0.0029(17) 0.0054(16) 0.0022(16)
C39 0.015(2) 0.021(2) 0.025(2) -0.0004(17) 0.0055(17) 0.0019(16)
C40 0.0132(19) 0.020(2) 0.0224(19) 0.0036(16) 0.0057(15) 0.0012(16)
C41 0.017(2) 0.025(2) 0.027(2) -0.0043(18) 0.0035(17) -0.0035(17)
C42 0.017(2) 0.026(2) 0.027(2) -0.0035(18) 0.0062(17) -0.0002(17)
O8 0.0166(15) 0.054(2) 0.0230(15) 0.0031(14) 0.0064(12) -0.0033(14)
N15 0.0132(15) 0.036(2) 0.0212(16) -0.0021(14) 0.0042(13) 0.0006(14)
N16 0.0148(17) 0.037(2) 0.0183(16) 0.0024(15) 0.0033(13) -0.0025(15)
C43 0.0163(19) 0.0136(18) 0.0229(19) -0.0013(15) 0.0019(15) 0.0019(15)
C44 0.0148(19) 0.024(2) 0.0233(19) -0.0005(16) 0.0049(15) -0.0003(16)
C45 0.018(2) 0.027(2) 0.0224(19) -0.0015(17) 0.0083(16) -0.0006(17)
C46 0.020(2) 0.033(2) 0.0191(18) -0.0017(16) 0.0045(15) -0.0003(17)
C47 0.022(2) 0.025(2) 0.023(2) -0.0022(16) 0.0048(16) 0.0006(17)
C48 0.016(2) 0.024(2) 0.0233(19) 0.0020(16) 0.0100(16) 0.0024(16)
O9 0.0139(15) 0.0244(16) 0.0381(18) 0.0004(14) 0.0055(13) 0.0031(12)
N17 0.0140(18) 0.024(2) 0.042(2) -0.0001(17) 0.0093(16) 0.0005(15)
N18 0.022(2) 0.0202(18) 0.034(2) 0.0025(16) 0.0106(16) -0.0009(16)
C49 0.0101(19) 0.025(2) 0.028(2) 0.0072(17) 0.0052(16) 0.0017(16)
C50 0.017(2) 0.024(2) 0.031(2) 0.0046(18) 0.0083(17) 0.0021(17)
C51 0.019(2) 0.026(2) 0.030(2) 0.0012(18) 0.0038(18) 0.0004(18)
C52 0.019(2) 0.021(2) 0.030(2) 0.0051(18) 0.0064(18) 0.0006(17)
C53 0.017(2) 0.021(2) 0.027(2) 0.0078(17) 0.0000(16) 0.0006(17)
C54 0.026(2) 0.023(2) 0.030(2) 0.0039(18) 0.0135(19) -0.0004(19)
O10 0.0171(15) 0.0240(16) 0.0347(17) -0.0015(13) 0.0100(13) 0.0000(13)
N19 0.0165(18) 0.026(2) 0.0281(18) -0.0056(15) 0.0090(15) -0.0026(15)
N20 0.0176(18) 0.033(2) 0.041(2) -0.0072(17) 0.0073(16) -0.0015(15)
C55 0.014(2) 0.021(2) 0.024(2) 0.0045(16) 0.0040(16) 0.0012(16)
C56 0.018(2) 0.029(2) 0.034(2) -0.0036(19) 0.0129(18) -0.0017(18)
C57 0.0135(19) 0.023(2) 0.0206(19) 0.0028(16) 0.0044(15) -0.0007(16)
C58 0.020(2) 0.028(2) 0.032(2) 0.0034(18) 0.0083(17) 0.0051(17)
C59 0.024(2) 0.024(2) 0.033(2) -0.0030(17) 0.0076(18) -0.0053(17)
C60 0.0123(19) 0.033(2) 0.029(2) -0.0010(18) 0.0067(16) 0.0001(17)
O11 0.0170(16) 0.0244(16) 0.0417(19) 0.0075(14) 0.0115(14) 0.0006(13)
N21 0.0165(19) 0.022(2) 0.043(2) 0.0069(17) 0.0092(16) 0.0017(15)
N22 0.0259(19) 0.028(2) 0.045(2) 0.0087(18) 0.0130(17) -0.0005(16)
C61 0.020(2) 0.022(2) 0.025(2) -0.0038(17) 0.0082(17) 0.0012(17)
C62 0.014(2) 0.029(2) 0.030(2) 0.0004(18) 0.0054(17) 0.0009(17)
C63 0.022(2) 0.023(2) 0.038(2) 0.0036(18) 0.0083(18) 0.0023(17)
C64 0.018(2) 0.031(2) 0.034(2) 0.0060(18) 0.0071(17) 0.0040(17)
C65 0.020(2) 0.023(2) 0.030(2) -0.0040(18) 0.0085(18) -0.0011(18)
C66 0.030(2) 0.030(2) 0.042(3) 0.013(2) 0.017(2) 0.0046(19)
O12 0.0173(16) 0.0223(16) 0.0355(17) 0.0060(13) 0.0092(13) -0.0005(13)
N23 0.022(2) 0.0237(19) 0.033(2) 0.0039(16) 0.0098(16) 0.0003(16)
N24 0.0179(19) 0.0187(19) 0.041(2) 0.0064(16) 0.0142(16) 0.0008(15)
C67 0.017(2) 0.023(2) 0.035(2) 0.0012(19) 0.0063(18) 0.0031(18)
C68 0.018(2) 0.017(2) 0.024(2) -0.0018(16) 0.0085(16) 0.0007(16)
C69 0.017(2) 0.020(2) 0.028(2) 0.0009(17) 0.0090(17) 0.0001(17)
C70 0.025(2) 0.022(2) 0.033(2) 0.0059(19) 0.0077(19) -0.0041(19)
C71 0.024(2) 0.022(2) 0.030(2) 0.0029(18) 0.0140(18) 0.0028(18)
C72 0.017(2) 0.016(2) 0.027(2) -0.0039(16) 0.0062(17) -0.0029(16)
O13 0.0141(15) 0.0221(16) 0.0391(18) -0.0002(13) 0.0072(13) -0.0037(12)
N25 0.0138(18) 0.0221(19) 0.034(2) -0.0013(15) 0.0070(15) -0.0005(14)
N26 0.020(2) 0.0179(19) 0.038(2) 0.0016(16) 0.0086(16) 0.0005(15)
C73 0.022(2) 0.018(2) 0.028(2) -0.0043(17) 0.0063(17) -0.0002(18)
C74 0.018(2) 0.017(2) 0.024(2) -0.0043(16) 0.0057(17) 0.0003(16)
C75 0.024(2) 0.016(2) 0.028(2) 0.0011(16) 0.0082(18) 0.0023(17)
C76 0.012(2) 0.029(2) 0.027(2) -0.0046(18) 0.0055(17) -0.0002(17)
C77 0.016(2) 0.024(2) 0.034(2) -0.0055(18) 0.0093(18) 0.0033(17)
C78 0.014(2) 0.020(2) 0.033(2) -0.0026(18) 0.0038(17) 0.0030(16)
O14 0.0179(16) 0.0248(17) 0.0355(17) -0.0009(13) 0.0094(13) -0.0018(13)
N27 0.0137(18) 0.0261(19) 0.033(2) -0.0036(16) 0.0076(15) -0.0022(15)
N28 0.020(2) 0.0195(19) 0.037(2) 0.0040(16) 0.0084(16) 0.0007(15)
C79 0.012(2) 0.031(2) 0.029(2) -0.0026(19) 0.0071(17) 0.0014(18)
C80 0.014(2) 0.019(2) 0.032(2) -0.0045(17) 0.0036(17) 0.0016(16)
C81 0.015(2) 0.018(2) 0.032(2) -0.0046(17) 0.0078(16) -0.0037(16)
C82 0.024(2) 0.021(2) 0.033(2) 0.0024(18) 0.0090(19) 0.0027(19)
C83 0.022(2) 0.018(2) 0.023(2) -0.0023(16) 0.0063(17) -0.0013(17)
C84 0.016(2) 0.026(2) 0.036(2) -0.0016(19) 0.0112(18) 0.0093(18)
O15 0.0153(15) 0.0223(16) 0.0355(17) 0.0006(13) 0.0061(13) -0.0038(12)
N29 0.0156(18) 0.0182(18) 0.036(2) -0.0050(15) 0.0066(15) -0.0007(14)
N30 0.021(2) 0.0177(18) 0.035(2) 0.0042(15) 0.0069(16) 0.0026(15)
C85 0.014(2) 0.028(2) 0.029(2) -0.0019(18) 0.0052(17) -0.0021(18)
C86 0.027(2) 0.018(2) 0.027(2) -0.0008(17) 0.0098(18) 0.0026(18)
C87 0.025(2) 0.015(2) 0.024(2) -0.0038(16) 0.0059(17) 0.0012(18)
C88 0.022(2) 0.024(2) 0.030(2) -0.0009(18) 0.0096(18) 0.0061(18)
C89 0.019(2) 0.014(2) 0.023(2) -0.0019(16) 0.0016(16) -0.0016(16)
C90 0.015(2) 0.020(2) 0.030(2) -0.0065(17) 0.0056(17) -0.0001(16)
O16 0.0193(16) 0.0388(19) 0.0276(16) -0.0016(13) 0.0086(12) 0.0013(13)
N31 0.0201(18) 0.038(2) 0.0235(17) -0.0037(16) 0.0067(14) 0.0002(16)
N32 0.0222(19) 0.033(2) 0.0234(17) 0.0009(16) 0.0051(15) 0.0015(16)
C91 0.019(2) 0.025(2) 0.032(2) -0.0006(17) 0.0106(17) 0.0007(17)
C92 0.023(2) 0.0144(18) 0.024(2) -0.0027(16) 0.0068(16) -0.0056(16)
C93 0.016(2) 0.023(2) 0.030(2) -0.0003(17) 0.0013(17) 0.0017(17)
C94 0.020(2) 0.025(2) 0.027(2) 0.0014(17) 0.0062(16) 0.0003(17)
C95 0.023(2) 0.035(3) 0.028(2) 0.0004(18) 0.0095(17) -0.0021(18)
C96 0.022(2) 0.036(3) 0.027(2) 0.0058(18) 0.0018(17) -0.0012(19)
O17 0.0227(17) 0.0232(17) 0.0419(19) 0.0060(14) 0.0140(14) 0.0025(13)
N33 0.026(2) 0.0220(19) 0.0312(19) 0.0039(16) 0.0048(16) -0.0053(16)
N34 0.0192(19) 0.0197(19) 0.040(2) 0.0057(16) 0.0111(16) 0.0004(15)
C97 0.022(2) 0.020(2) 0.034(2) 0.0012(18) 0.0060(19) 0.0006(18)
C98 0.023(2) 0.020(2) 0.024(2) -0.0015(16) 0.0099(17) 0.0020(17)
C99 0.021(2) 0.022(2) 0.036(2) -0.0012(18) 0.0131(19) -0.0020(18)
C100 0.020(2) 0.019(2) 0.028(2) -0.0047(17) 0.0047(17) -0.0016(17)
C101 0.032(3) 0.023(2) 0.033(2) 0.002(2) 0.005(2) 0.001(2)
C102 0.023(2) 0.019(2) 0.036(2) -0.0001(19) 0.0069(19) 0.0004(18)
O18 0.0134(15) 0.0218(16) 0.0353(17) 0.0005(13) 0.0051(12) -0.0024(12)
N35 0.0157(19) 0.026(2) 0.037(2) 0.0005(17) 0.0054(16) 0.0019(15)
N36 0.020(2) 0.0198(19) 0.034(2) 0.0024(16) 0.0078(16) 0.0009(15)
C103 0.022(2) 0.024(2) 0.034(2) 0.0050(18) 0.0069(18) 0.0052(18)
C104 0.021(2) 0.017(2) 0.023(2) -0.0054(16) 0.0045(17) 0.0002(17)
C105 0.014(2) 0.022(2) 0.028(2) -0.0035(17) 0.0032(16) 0.0005(17)
C106 0.021(2) 0.020(2) 0.026(2) -0.0055(17) 0.0059(17) -0.0001(18)
C107 0.016(2) 0.028(2) 0.031(2) 0.0008(18) 0.0035(17) -0.0025(18)
C108 0.018(2) 0.029(2) 0.030(2) 0.0008(18) 0.0064(18) 0.0026(18)
N37 0.0156(19) 0.024(2) 0.043(2) 0.0028(16) 0.0094(17) -0.0013(15)
O19 0.0174(16) 0.0259(17) 0.0426(19) 0.0062(14) 0.0071(14) 0.0011(14)
N38 0.020(2) 0.033(2) 0.057(3) 0.015(2) 0.0076(18) -0.0003(17)
C109 0.021(2) 0.031(3) 0.037(3) 0.006(2) 0.0082(19) 0.0014(19)
C110 0.022(2) 0.024(2) 0.0223(19) -0.0022(16) 0.0058(16) -0.0014(17)
C111 0.019(2) 0.029(2) 0.042(3) 0.007(2) 0.0090(19) 0.0000(18)
C112 0.014(2) 0.022(2) 0.026(2) -0.0030(17) 0.0020(16) 0.0004(16)
C113 0.017(2) 0.037(3) 0.044(3) 0.014(2) 0.0015(18) 0.0017(18)
C114 0.024(2) 0.034(2) 0.033(2) 0.0044(19) 0.0076(18) -0.0038(19)
O20 0.0174(15) 0.0395(19) 0.0285(15) -0.0022(14) 0.0088(12) -0.0018(13)
N39 0.0191(17) 0.035(2) 0.0283(18) 0.0037(16) 0.0045(14) -0.0027(15)
N40 0.0201(19) 0.030(2) 0.0236(17) -0.0009(15) 0.0050(14) -0.0028(15)
C115 0.025(2) 0.026(2) 0.026(2) 0.0008(17) 0.0082(17) -0.0003(17)
C116 0.019(2) 0.0159(19) 0.029(2) 0.0014(16) 0.0063(16) -0.0027(16)
C117 0.016(2) 0.023(2) 0.028(2) 0.0025(17) 0.0018(16) -0.0016(16)
C118 0.025(2) 0.031(2) 0.035(2) 0.0059(19) 0.0135(19) -0.0023(18)
C119 0.020(2) 0.0177(19) 0.025(2) -0.0023(16) 0.0075(16) -0.0052(16)
C120 0.028(2) 0.036(3) 0.024(2) 0.0027(18) 0.0085(17) -0.0038(19)

#END
